Version 4
SHEET 1 880 680
WIRE 336 -352 272 -352
WIRE 464 -352 400 -352
WIRE 272 -240 272 -352
WIRE 320 -240 272 -240
WIRE 464 -240 464 -352
WIRE 464 -240 400 -240
WIRE 96 -128 32 -128
WIRE 192 -128 176 -128
WIRE 272 -128 272 -240
WIRE 272 -128 256 -128
WIRE 336 -128 272 -128
WIRE 464 -112 464 -240
WIRE 464 -112 400 -112
WIRE 336 -96 272 -96
WIRE 32 -64 32 -128
WIRE 464 -32 464 -112
WIRE 640 48 640 0
WIRE 784 48 784 0
WIRE 32 112 32 16
WIRE 272 112 272 -96
WIRE 464 112 464 48
FLAG 32 112 0
FLAG 272 112 0
FLAG 464 112 0
FLAG 640 48 0
FLAG 784 48 0
FLAG 640 -80 Vcc
FLAG 368 -144 Vcc
FLAG 784 -80 Vee
FLAG 368 -80 Vee
FLAG 464 -112 Vout
FLAG 32 -128 Vin
SYMBOL res 192 -144 R90
WINDOW 0 0 56 VBottom 2
WINDOW 3 32 56 VTop 2
SYMATTR InstName R1
SYMATTR Value 1k
SYMBOL Misc\\signal 32 -80 R0
WINDOW 39 0 0 Left 0
SYMATTR InstName V1
SYMATTR Value2 AC 1
SYMBOL res 448 -48 R0
SYMATTR InstName R2
SYMATTR Value 1k
SYMBOL res 416 -256 R90
WINDOW 0 0 56 VBottom 2
WINDOW 3 32 56 VTop 2
SYMATTR InstName R3
SYMATTR Value 10k
SYMBOL cap 400 -368 R90
WINDOW 0 0 32 VBottom 2
WINDOW 3 32 32 VTop 2
SYMATTR InstName C1
SYMATTR Value 1n
SYMBOL voltage 640 -96 R0
WINDOW 123 0 0 Left 0
WINDOW 39 0 0 Left 0
SYMATTR InstName V2
SYMATTR Value 15
SYMBOL voltage 784 16 R180
WINDOW 0 24 96 Left 2
WINDOW 3 24 16 Left 2
WINDOW 123 0 0 Left 0
WINDOW 39 0 0 Left 0
SYMATTR InstName V3
SYMATTR Value 15
SYMBOL Opamps\\LT1211 368 -176 R0
SYMATTR InstName U1
SYMBOL cap 256 -144 R90
WINDOW 0 0 32 VBottom 2
WINDOW 3 32 32 VTop 2
SYMATTR InstName C2
SYMATTR Value 10”
TEXT 0 136 Left 2 !.ac dec 1000 1 1.5Meg
