Version 4
SHEET 1 880 680
WIRE 176 -304 128 -304
WIRE 320 -304 256 -304
WIRE 128 -240 128 -304
WIRE 320 -160 320 -240
FLAG 128 -160 0
FLAG 320 -160 0
FLAG 128 -304 U1
FLAG 320 -304 U2
SYMBOL cap 304 -304 R0
WINDOW 0 39 31 Left 2
SYMATTR InstName C1
SYMATTR Value 1”
SYMBOL Misc\\signal 128 -256 R0
WINDOW 39 0 0 Left 0
SYMATTR InstName V1
SYMATTR Value2 AC 1
SYMBOL res 272 -320 R90
WINDOW 0 0 56 VBottom 2
WINDOW 3 32 56 VTop 2
SYMATTR InstName R1
SYMATTR Value 1k
TEXT 48 -120 Left 2 !.ac dec 1000 1 1k
